342/IEEE_14_VLN_Node.txt

LINE-GROUND and LINE-LINE VOLTAGES BY BUS & NODE

Bus  Node    VLN (kV)   Angle      pu     Base kV    Node-Node   VLL (kV)  Angle      pu

B1 ......... 1      0.61199 /_    0.0      1.06     1.000        1-2       1.06 /_   30.0      1.06
   -         2      0.61199 /_ -120.0      1.06     1.000        2-3       1.06 /_  -90.0      1.06
   -         3      0.61199 /_  120.0      1.06     1.000        3-1       1.06 /_  150.0      1.06
B2 ......... 1      0.60348 /_   -5.0    1.0453     1.000        1-2     1.0453 /_   25.0    1.0453
   -         2      0.60348 /_ -125.0    1.0453     1.000        2-3     1.0453 /_  -95.0    1.0453
   -         3      0.60348 /_  115.0    1.0453     1.000        3-1     1.0453 /_  145.0    1.0453
B5 ......... 1        0.593 /_   -8.9    1.0271     1.000        1-2     1.0271 /_   21.1    1.0271
   -         2        0.593 /_ -128.9    1.0271     1.000        2-3     1.0271 /_  -98.9    1.0271
   -         3        0.593 /_  111.1    1.0271     1.000        3-1     1.0271 /_  141.1    1.0271
B3 ......... 1      0.58286 /_  -12.6    1.0095     1.000        1-2     1.0095 /_   17.4    1.0095
   -         2      0.58286 /_ -132.6    1.0095     1.000        2-3     1.0095 /_ -102.6    1.0095
   -         3      0.58286 /_  107.4    1.0095     1.000        3-1     1.0095 /_  137.4    1.0095
B4 ......... 1      0.59054 /_  -10.3    1.0228     1.000        1-2     1.0228 /_   19.7    1.0228
   -         2      0.59054 /_ -130.3    1.0228     1.000        2-3     1.0228 /_ -100.3    1.0228
   -         3      0.59054 /_  109.7    1.0228     1.000        3-1     1.0228 /_  139.7    1.0228
B6 ......... 1      0.60027 /_  -15.4    1.0397     1.000        1-2     1.0397 /_   14.6    1.0397
   -         2      0.60027 /_ -135.4    1.0397     1.000        2-3     1.0397 /_ -105.4    1.0397
   -         3      0.60027 /_  104.6    1.0397     1.000        3-1     1.0397 /_  134.6    1.0397
B11 ........ 1      0.59439 /_  -16.4    1.0295     1.000        1-2     1.0295 /_   13.6    1.0295
   -         2      0.59439 /_ -136.4    1.0295     1.000        2-3     1.0295 /_ -106.4    1.0295
   -         3      0.59439 /_  103.6    1.0295     1.000        3-1     1.0295 /_  133.6    1.0295
B12 ........ 1      0.59189 /_  -16.4    1.0252     1.000        1-2     1.0252 /_   13.6    1.0252
   -         2      0.59189 /_ -136.4    1.0252     1.000        2-3     1.0252 /_ -106.4    1.0252
   -         3      0.59189 /_  103.6    1.0252     1.000        3-1     1.0252 /_  133.6    1.0252
B13 ........ 1      0.58921 /_  -16.6    1.0205     1.000        1-2     1.0205 /_   13.4    1.0205
   -         2      0.58921 /_ -136.6    1.0205     1.000        2-3     1.0205 /_ -106.6    1.0205
   -         3      0.58921 /_  103.4    1.0205     1.000        3-1     1.0205 /_  133.4    1.0205
B7 ......... 1      0.60292 /_  -14.8    1.0443     1.000        1-2     1.0443 /_   15.2    1.0443
   -         2      0.60292 /_ -134.8    1.0443     1.000        2-3     1.0443 /_ -104.8    1.0443
   -         3      0.60292 /_  105.2    1.0443     1.000        3-1     1.0443 /_  135.2    1.0443
B8 ......... 1      0.62545 /_  -14.8    1.0833     1.000        1-2     1.0833 /_   15.2    1.0833
   -         2      0.62545 /_ -134.8    1.0833     1.000        2-3     1.0833 /_ -104.8    1.0833
   -         3      0.62545 /_  105.2    1.0833     1.000        3-1     1.0833 /_  135.2    1.0833
B9 ......... 1      0.59683 /_  -17.2    1.0337     1.000        1-2     1.0337 /_   12.8    1.0337
   -         2      0.59683 /_ -137.2    1.0337     1.000        2-3     1.0337 /_ -107.2    1.0337
   -         3      0.59683 /_  102.8    1.0337     1.000        3-1     1.0337 /_  132.8    1.0337
B10 ........ 1      0.59293 /_  -17.2     1.027     1.000        1-2      1.027 /_   12.8     1.027
   -         2      0.59293 /_ -137.2     1.027     1.000        2-3      1.027 /_ -107.2     1.027
   -         3      0.59293 /_  102.8     1.027     1.000        3-1      1.027 /_  132.8     1.027
B14 ........ 1      0.58281 /_  -18.0    1.0095     1.000        1-2     1.0095 /_   12.0    1.0095
   -         2      0.58281 /_ -138.0    1.0095     1.000        2-3     1.0095 /_ -108.0    1.0095
   -         3      0.58281 /_  102.0    1.0095     1.000        3-1     1.0095 /_  132.0    1.0095
